-------------------------------------------------------
          Amber 20 PMEMD                              2020
          -------------------------------------------------------

  [-O]verwriting output

File Assignments:

 Here is the input file:

equilibration for box
 &cntrl
  imin=0,
  ntpr=1000,
  ntwx=1000,
  ntx=1,
  irest=0,
  tempi=298.,
  temp0=298.,
  ntt=3,
  gamma_ln=5.0,
  ntb=2,
  ntp=1,
  taup=1.0,
  ioutfm=1,
  nstlim=500000,
  ntwr=1000,
  dt=.001,
  ig=-1,
  iwrap=1
 /

Note: ig = -1. Setting random seed to   845832 based on wallclock time in
      microseconds and disabling the synchronization of random numbers
      between tasks to improve performance.

--------------------------------------------------------------------------------
   1.  RESOURCE   USE:
--------------------------------------------------------------------------------

 getting box info from netcdf restart file
 NATOM  =   38000 NTYPES =      10 NBONH =   22500 MBONA  =   14000
 NTHETH =   47000 MTHETA =   17000 NPHIH =   74500 MPHIA  =   17500
 NHPARM =       0 NPARM  =       0 NNB   =  180500 NRES   =    1500
 NBONA  =   14000 NTHETA =   17000 NPHIA =   17500 NUMBND =      15
 NUMANG =      27 NPTRA  =      18 NATYP =      12 NPHB   =       0
 IFBOX  =       1 NMXRS  =      28 IFCAP =       0 NEXTRA =       0
 NCOPY  =       0

     BOX TYPE: RECTILINEAR

--------------------------------------------------------------------------------
   2.  CONTROL  DATA  FOR  THE  RUN
--------------------------------------------------------------------------------

default_name

General flags:
     imin    =       0, nmropt  =       0

Nature and format of input:
     ntx     =       1, irest   =       0, ntrx    =       1

Nature and format of output:
     ntxo    =       2, ntpr    =    1000, ntrx    =       1, ntwr    =    1000
     iwrap   =       1, ntwx    =    1000, ntwv    =       0, ntwe    =       0
     ioutfm  =       1, ntwprt  =       0, idecomp =       0, rbornstat=      0

Potential function:
     ntf     =       1, ntb     =       2, igb     =       0, nsnb    =      25
     ipol    =       0, gbsa    =       0, iesp    =       0
     dielc   =   1.00000, cut     =   8.00000, intdiel =   1.00000

Frozen or restrained atoms:
     ibelly  =       0, ntr     =       0

Molecular dynamics:
     nstlim  =    500000, nscm    =      1000, nrespa  =         1
     t       =   0.00000, dt      =   0.00100, vlimit  =  20.00000

Langevin dynamics temperature regulation:
     ig      =  845832
     temp0   = 298.00000, tempi   = 298.00000, gamma_ln=   5.00000

Pressure regulation:
     ntp     =       1
     pres0   =   1.00000, comp    =  44.60000, taup    =   1.00000

Ewald parameters:
     verbose =       0, ew_type =       0, nbflag  =       1, use_pme =       1
     vdwmeth =       1, eedmeth =       1, netfrc  =       1
     Box X =  100.053   Box Y =  100.046   Box Z =  399.690
     Alpha =   90.000   Beta  =   90.000   Gamma =   90.000
     NFFT1 =  108       NFFT2 =  108       NFFT3 =  400
     Cutoff=    8.000   Tol   =0.100E-04
     Ewald Coefficient =  0.34864
     Interpolation order =    4

--------------------------------------------------------------------------------
   3.  ATOMIC COORDINATES AND VELOCITIES
--------------------------------------------------------------------------------

default_name
 begin time read from input coords =     0.000 ps

 Number of triangulated 3-point waters found:        0

     Sum of charges from parm topology file =   0.00149945
     Forcing neutrality...

--------------------------------------------------------------------------------
   4.  RESULTS
 NSTEP =        0   TIME(PS) =       0.000  TEMP(K) =   298.54  PRESS =   -25.4
 Etot   =    -64044.5947  EKtot   =     33815.0520  EPtot      =    -97859.6467
 BOND   =       298.8470  ANGLE   =      4478.1285  DIHED      =     20315.0747
 1-4 NB =      2466.2163  1-4 EEL =   -227658.7050  VDWAALS    =     -4987.7231
 EELEC  =    107228.5149  EHBOND  =         0.0000  RESTRAINT  =         0.0000
 EKCMT  =      1300.9111  VIRIAL  =      3496.6094  VOLUME     =   4000857.9054
                                                    Density    =         0.0912
 Ewald error estimate:   0.1686E-04
 ------------------------------------------------------------------------------

      A V E R A G E S   O V E R     500 S T E P S

 NSTEP =   500000   TIME(PS) =     500.000  TEMP(K) =   297.95  PRESS =   -20.6
 Etot   =    -48817.5274  EKtot   =     33749.1929  EPtot      =    -82566.7203
 BOND   =     11759.2833  ANGLE   =     19198.4903  DIHED      =     23812.3766
 1-4 NB =      3163.2213  1-4 EEL =   -227695.9184  VDWAALS    =     -8985.0499
 EELEC  =     96180.8764  EHBOND  =         0.0000  RESTRAINT  =         0.0000
 EKCMT  =      1332.0212  VIRIAL  =      2747.1721  VOLUME     =   3216800.0342
                                                    Density    =         0.1155
 Ewald error estimate:   0.1135E-04
 ------------------------------------------------------------------------------

      R M S  F L U C T U A T I O N S

 NSTEP =   500000   TIME(PS) =     500.000  TEMP(K) =     1.23  PRESS =    11.9
 Etot   =      3993.6297  EKtot   =       138.9985  EPtot      =      3981.0473
 BOND   =        87.4950  ANGLE   =       104.6432  DIHED      =        68.7139
 1-4 NB =        23.8081  1-4 EEL =        63.0802  VDWAALS    =      1906.7991
 EELEC  =      2043.5076  EHBOND  =         0.0000  RESTRAINT  =         0.0000
 EKCMT  =        28.4062  VIRIAL  =       791.9728  VOLUME     =    421574.1847
                                                    Density    =         0.0153
 Ewald error estimate:   0.8661E-05
 ------------------------------------------------------------------------------
